
**** 05/21/25 22:57:48 **** PSpice 24.1.0 (23 January 2025) *** ID# 0 ********

 ** Profile: "SCHEMATIC1-STB"  [ C:\Users\user\Desktop\Tehnici CAD\MacucVlad_FINAL\Proiect CAD final\stabilizatordetensiune_2-pspicef


 ****     CIRCUIT DESCRIPTION


******************************************************************************




** Creating circuit file "STB.cir" 
** WARNING: THIS AUTOMATICALLY GENERATED FILE MAY BE OVERWRITTEN BY SUBSEQUENT SIMULATIONS

*Libraries: 
* Profile Libraries :
* Local Libraries :
* From [PSPICE NETLIST] section of C:\Users\user\AppData\Roaming\SPB_Data\cdssetup\OrCAD_PSpice\24.1.0\PSpice.ini file:
.lib "nom.lib" 

*Analysis directives: 
.TRAN  0 6m 0 
.TEMP 0 25 47 70
.OPTIONS ADVCONV
.PROBE64 V(alias(*)) I(alias(*)) W(alias(*)) D(alias(*)) NOISE(alias(*)) 
.INC "..\SCHEMATIC1.net" 



**** INCLUDING SCHEMATIC1.net ****
* source STABILIZATORDETENSIUNE_2
Q_Q1         N07962 N07920 OUT Q2N2222
X_U1A         N08086 N08172 IN 0 N07962 LM358
R_R2         N07920 OUT R_R2 0.33 TC=0,0 
.model        R_R2 RES R=1 DEV=5% TC1=0 TC2=0
R_R5         0 OUT R_R5 11 TC=0,0 
.model        R_R5 RES R=1 DEV=5% TC1=0 TC2=0
Q_Q2         IN N07962 N07920 Q2N3055
X_P         N08074 N08172 N08252 POT PARAMS: SET={set} VALUE=1k
R_R3         N08074 OUT R_R3 11k TC=0,0 
.model        R_R3 RES R=1 DEV=5% TC1=0 TC2=0
D_D1         0 N08086 D1N4733 
R_R4         0 N08252 R_R4 3.6k TC=0,0 
.model        R_R4 RES R=1 DEV=5% TC1=0 TC2=0
R_R1         N08086 IN R_R1 1k TC=0,0 
.model        R_R1 RES R=1 DEV=5% TC1=0 TC2=0
V_V1         IN 0 27V
.PARAM  set=0.5

**** RESUMING STB.cir ****
.END

**** 05/21/25 22:57:48 **** PSpice 24.1.0 (23 January 2025) *** ID# 0 ********

 ** Profile: "SCHEMATIC1-STB"  [ C:\Users\user\Desktop\Tehnici CAD\MacucVlad_FINAL\Proiect CAD final\stabilizatordetensiune_2-pspicef


 ****     Diode MODEL PARAMETERS


******************************************************************************




               D1N4733         X_U1A.x_lm358.dx 
          IS    1.214000E-15  800.000000E-18 
         ISR    2.601000E-09                 
          BV    5.1                          
         IBV     .70507                      
         NBV     .74348                      
        IBVL    4.827400E-03                 
        NBVL    6.7393                       
          RS    1.078           1            
         CJO  185.000000E-12                 
          VJ     .75                         
           M     .3509                       
        TBV1  176.471000E-06                 


               X_U1A.x_lm358.dy 
          IS  800.000000E-18 
          RS    1.000000E-03 
         CJO   10.000000E-12 


**** 05/21/25 22:57:48 **** PSpice 24.1.0 (23 January 2025) *** ID# 0 ********

 ** Profile: "SCHEMATIC1-STB"  [ C:\Users\user\Desktop\Tehnici CAD\MacucVlad_FINAL\Proiect CAD final\stabilizatordetensiune_2-pspicef


 ****     BJT MODEL PARAMETERS


******************************************************************************




               Q2N2222         Q2N3055         
               NPN             NPN             
       LEVEL    1               1            
          IS   14.340000E-15  974.400000E-15 
          BF  255.9            99.49         
          NF    1               1            
         VAF   74.03           50            
         IKF     .2847          4.029        
         ISE   14.340000E-15  902.500000E-12 
          NE    1.307           1.941        
          BR    6.092           2.949        
          NR    1               1            
         ISS    0               0            
          RB   10                .1          
          RE    0               0            
          RC    1                .1          
         CJE   22.010000E-12  569.100000E-12 
         VJE     .75             .75         
         MJE     .377            .3333       
         CJC    7.306000E-12  276.000000E-12 
         VJC     .75             .75         
         MJC     .3416           .3333       
        XCJC    1               1            
         CJS    0               0            
         VJS     .75             .75         
          TF  411.100000E-12   39.110000E-09 
         XTF    3               2            
         VTF    1.7            10            
         ITF     .6            20            
          TR   46.910000E-09  971.700000E-09 
         XTB    1.5             1.5          
          KF    0               0            
          AF    1               1            
          CN    2.42            2.42         
           D     .87             .87         


               X_U1A.x_lm358.qx 
               PNP             
       LEVEL    1            
          IS  800.000000E-18 
          BF  166.7          
          NF    1            
          BR    1            
          NR    1            
         ISS    0            
          RE    0            
          RC    0            
         CJE    0            
         VJE     .75         
         CJC    0            
         VJC     .75         
         MJC     .33         
        XCJC    1            
         CJS    0            
         VJS     .75         
          KF    0            
          AF    1            
          CN    2.2          
           D     .52         


**** 05/21/25 22:57:48 **** PSpice 24.1.0 (23 January 2025) *** ID# 0 ********

 ** Profile: "SCHEMATIC1-STB"  [ C:\Users\user\Desktop\Tehnici CAD\MacucVlad_FINAL\Proiect CAD final\stabilizatordetensiune_2-pspicef


 ****     Resistor MODEL PARAMETERS


******************************************************************************




               R_R2            R_R5            R_R3            R_R4            
           R    1               1               1               1            


               R_R1            
           R    1            


**** 05/21/25 22:57:48 **** PSpice 24.1.0 (23 January 2025) *** ID# 0 ********

 ** Profile: "SCHEMATIC1-STB"  [ C:\Users\user\Desktop\Tehnici CAD\MacucVlad_FINAL\Proiect CAD final\stabilizatordetensiune_2-pspicef


 ****     Current Controlled Switch MODEL PARAMETERS


******************************************************************************




               X_U1A.x_lm358.sw2 
         RON    1            
        ROFF   10.000000E+06 
         ION    0            
        IOFF   -1.000000E-06 


               X_U1A.x_lm358.sw1 
         RON    1            
        ROFF   10.000000E+06 
         ION   -1.000000E-06 
        IOFF    0            


               X_U1A.x_lm358.sw3 
         RON    1            
        ROFF   10.000000E+06 
         ION   -1.000000E-06 
        IOFF    0            


               X_U1A.x_lm358.sw4 
         RON    1            
        ROFF   10.000000E+06 
         ION    0            
        IOFF   -1.000000E-06 


**** 05/21/25 22:57:48 **** PSpice 24.1.0 (23 January 2025) *** ID# 0 ********

 ** Profile: "SCHEMATIC1-STB"  [ C:\Users\user\Desktop\Tehnici CAD\MacucVlad_FINAL\Proiect CAD final\stabilizatordetensiune_2-pspicef


 ****     TEMPERATURE-ADJUSTED VALUES      TEMPERATURE =    0.000 DEG C


******************************************************************************




 **** DIODE MODEL PARAMETERS

                   D1N4733    X_U1A.x_lm358.dy
                                             X_U1A.x_lm358.dx

         IS        1.315E-17      8.668E-18      8.668E-18  
         VJ        7.965E-01      1.024E+00      1.024E+00  
        CJO        1.803E-10      9.826E-12      0.000E+00  
         RS        1.078E+00      1.000E-03      1.000E+00  
        IKF        0.000E+00      0.000E+00      0.000E+00  
         BV        5.076E+00  


 **** BJT MODEL PARAMETERS

                   Q2N2222        Q2N3055    X_U1A.x_lm358.qx

         BF        2.222E+02      8.637E+01      1.667E+02  
        ISE        5.181E-16      1.010E-10      0.000E+00  
        VJE        7.965E-01      7.965E-01      7.965E-01  
        CJE        2.141E-11      5.553E-10      0.000E+00  
         RE        0.000E+00      0.000E+00      0.000E+00  
         RB        1.000E+01      1.000E-01      0.000E+00  
         BR        5.289E+00      2.560E+00      1.000E+00  
        ISC        0.000E+00      0.000E+00      0.000E+00  
        VJC        7.965E-01      7.965E-01      7.965E-01  
        CJC        7.124E-12      2.693E-10      0.000E+00  
         RC        1.000E+00      1.000E-01      0.000E+00  
        RBM        1.000E+01      1.000E-01      0.000E+00  
         IS        1.554E-16      1.056E-14      8.668E-18  
        ISS        0.000E+00      0.000E+00      0.000E+00  
        VJS        7.965E-01      7.965E-01      7.965E-01  
        CJS        0.000E+00      0.000E+00      0.000E+00  
      GAMMA        1.000E-11      1.000E-11      1.000E-11  
        RCO        0.000E+00      0.000E+00      0.000E+00  
         VO        1.000E+01      1.000E+01      1.000E+01  


 **** RESISTORS

                 R_R2 <R_R2>    R_R5 <R_R5>    R_R3 <R_R3>  

          R        3.300E-01      1.100E+01      1.100E+04  


                 R_R4 <R_R4>    R_R1 <R_R1>                 

          R        3.600E+03      1.000E+03  



**** 05/21/25 22:57:48 **** PSpice 24.1.0 (23 January 2025) *** ID# 0 ********

 ** Profile: "SCHEMATIC1-STB"  [ C:\Users\user\Desktop\Tehnici CAD\MacucVlad_FINAL\Proiect CAD final\stabilizatordetensiune_2-pspicef


 ****     INITIAL TRANSIENT SOLUTION       TEMPERATURE =    0.000 DEG C


******************************************************************************



 NODE   VOLTAGE     NODE   VOLTAGE     NODE   VOLTAGE     NODE   VOLTAGE


(   IN)   27.0000  (  OUT)   19.1690  (N07920)   19.7440 (N07962)   20.5220     

(N08074)    5.6524 (N08086)    5.0359 (N08172)    5.0381 (N08252)    4.4237     

(X_U1A.x_lm358.6)    -.0017           (X_U1A.x_lm358.7)   21.8560               

(X_U1A.x_lm358.8)   21.8560           (X_U1A.x_lm358.9)    0.0000               

(X_U1A.x_lm358.a)   26.9730           (X_U1A.x_lm358.b)    -.0267               

(X_U1A.x_lm358.10)    5.6993          (X_U1A.x_lm358.11)     .0402              

(X_U1A.x_lm358.12)     .0425          (X_U1A.x_lm358.13)    5.6852              

(X_U1A.x_lm358.14)    5.6844          (X_U1A.x_lm358.53)   25.5000              

(X_U1A.x_lm358.54)     .8220          (X_U1A.x_lm358.90)   26.6910              

(X_U1A.x_lm358.91)   40.0000          (X_U1A.x_lm358.92)  -40.0000              

(X_U1A.x_lm358.99)   13.5000          




    VOLTAGE SOURCE CURRENTS
    NAME         CURRENT

    V_V1        -1.769E+00
    X_U1A.x_lm358.vb  -1.706E-08
    X_U1A.x_lm358.vc   4.978E-12
    X_U1A.x_lm358.ve   1.959E-11
    X_U1A.x_lm358.vlim   2.669E-02
    X_U1A.x_lm358.vlp  -1.331E-11
    X_U1A.x_lm358.vln  -6.670E-11

    TOTAL POWER DISSIPATION   4.78E+01  WATTS


**** 05/21/25 22:57:48 **** PSpice 24.1.0 (23 January 2025) *** ID# 0 ********

 ** Profile: "SCHEMATIC1-STB"  [ C:\Users\user\Desktop\Tehnici CAD\MacucVlad_FINAL\Proiect CAD final\stabilizatordetensiune_2-pspicef


 ****     TEMPERATURE-ADJUSTED VALUES      TEMPERATURE =   25.000 DEG C


******************************************************************************




 **** DIODE MODEL PARAMETERS

                   D1N4733    X_U1A.x_lm358.dy
                                             X_U1A.x_lm358.dx

         IS        8.922E-16      5.880E-16      5.880E-16  
         VJ        7.535E-01      1.002E+00      1.002E+00  
        CJO        1.846E-10      9.987E-12      0.000E+00  
         RS        1.078E+00      1.000E-03      1.000E+00  
        IKF        0.000E+00      0.000E+00      0.000E+00  
         BV        5.098E+00  


 **** BJT MODEL PARAMETERS

                   Q2N2222        Q2N3055    X_U1A.x_lm358.qx

         BF        2.533E+02      9.850E+01      1.667E+02  
        ISE        1.144E-14      7.779E-10      0.000E+00  
        VJE        7.535E-01      7.535E-01      7.535E-01  
        CJE        2.196E-11      5.681E-10      0.000E+00  
         RE        0.000E+00      0.000E+00      0.000E+00  
         RB        1.000E+01      1.000E-01      0.000E+00  
         BR        6.031E+00      2.920E+00      1.000E+00  
        ISC        0.000E+00      0.000E+00      0.000E+00  
        VJC        7.535E-01      7.535E-01      7.535E-01  
        CJC        7.292E-12      2.755E-10      0.000E+00  
         RC        1.000E+00      1.000E-01      0.000E+00  
        RBM        1.000E+01      1.000E-01      0.000E+00  
         IS        1.054E-14      7.161E-13      5.880E-16  
        ISS        0.000E+00      0.000E+00      0.000E+00  
        VJS        7.535E-01      7.535E-01      7.535E-01  
        CJS        0.000E+00      0.000E+00      0.000E+00  
      GAMMA        1.000E-11      1.000E-11      1.000E-11  
        RCO        0.000E+00      0.000E+00      0.000E+00  
         VO        1.000E+01      1.000E+01      1.000E+01  


 **** RESISTORS

                 R_R2 <R_R2>    R_R5 <R_R5>    R_R3 <R_R3>  

          R        3.300E-01      1.100E+01      1.100E+04  


                 R_R4 <R_R4>    R_R1 <R_R1>                 

          R        3.600E+03      1.000E+03  



**** 05/21/25 22:57:48 **** PSpice 24.1.0 (23 January 2025) *** ID# 0 ********

 ** Profile: "SCHEMATIC1-STB"  [ C:\Users\user\Desktop\Tehnici CAD\MacucVlad_FINAL\Proiect CAD final\stabilizatordetensiune_2-pspicef


 ****     INITIAL TRANSIENT SOLUTION       TEMPERATURE =   25.000 DEG C


******************************************************************************



 NODE   VOLTAGE     NODE   VOLTAGE     NODE   VOLTAGE     NODE   VOLTAGE


(   IN)   27.0000  (  OUT)   19.2330  (N07920)   19.8100 (N07962)   20.5500     

(N08074)    5.6713 (N08086)    5.0525 (N08172)    5.0549 (N08252)    4.4384     

(X_U1A.x_lm358.6)    -.0017           (X_U1A.x_lm358.7)   21.7310               

(X_U1A.x_lm358.8)   21.7310           (X_U1A.x_lm358.9)    0.0000               

(X_U1A.x_lm358.a)   26.9760           (X_U1A.x_lm358.b)    -.0236               

(X_U1A.x_lm358.10)    5.6670          (X_U1A.x_lm358.11)     .0402              

(X_U1A.x_lm358.12)     .0425          (X_U1A.x_lm358.13)    5.6529              

(X_U1A.x_lm358.14)    5.6521          (X_U1A.x_lm358.53)   25.5000              

(X_U1A.x_lm358.54)     .8220          (X_U1A.x_lm358.90)   23.6240              

(X_U1A.x_lm358.91)   40.0000          (X_U1A.x_lm358.92)  -40.0000              

(X_U1A.x_lm358.99)   13.5000          




    VOLTAGE SOURCE CURRENTS
    NAME         CURRENT

    V_V1        -1.775E+00
    X_U1A.x_lm358.vb  -1.667E-08
    X_U1A.x_lm358.vc   4.951E-12
    X_U1A.x_lm358.ve   1.962E-11
    X_U1A.x_lm358.vlim   2.362E-02
    X_U1A.x_lm358.vlp  -1.638E-11
    X_U1A.x_lm358.vln  -6.363E-11

    TOTAL POWER DISSIPATION   4.79E+01  WATTS


**** 05/21/25 22:57:48 **** PSpice 24.1.0 (23 January 2025) *** ID# 0 ********

 ** Profile: "SCHEMATIC1-STB"  [ C:\Users\user\Desktop\Tehnici CAD\MacucVlad_FINAL\Proiect CAD final\stabilizatordetensiune_2-pspicef


 ****     TEMPERATURE-ADJUSTED VALUES      TEMPERATURE =   47.000 DEG C


******************************************************************************




 **** DIODE MODEL PARAMETERS

                   D1N4733    X_U1A.x_lm358.dy
                                             X_U1A.x_lm358.dx

         IS        2.151E-14      1.417E-14      1.417E-14  
         VJ        7.149E-01      9.815E-01      9.815E-01  
        CJO        1.886E-10      1.013E-11      0.000E+00  
         RS        1.078E+00      1.000E-03      1.000E+00  
        IKF        0.000E+00      0.000E+00      0.000E+00  
         BV        5.118E+00  


 **** BJT MODEL PARAMETERS

                   Q2N2222        Q2N3055    X_U1A.x_lm358.qx

         BF        2.819E+02      1.096E+02      1.667E+02  
        ISE        1.174E-13      3.602E-09      0.000E+00  
        VJE        7.149E-01      7.149E-01      7.149E-01  
        CJE        2.247E-11      5.795E-10      0.000E+00  
         RE        0.000E+00      0.000E+00      0.000E+00  
         RB        1.000E+01      1.000E-01      0.000E+00  
         BR        6.711E+00      3.249E+00      1.000E+00  
        ISC        0.000E+00      0.000E+00      0.000E+00  
        VJC        7.149E-01      7.149E-01      7.149E-01  
        CJC        7.443E-12      2.810E-10      0.000E+00  
         RC        1.000E+00      1.000E-01      0.000E+00  
        RBM        1.000E+01      1.000E-01      0.000E+00  
         IS        2.541E-13      1.726E-11      1.417E-14  
        ISS        0.000E+00      0.000E+00      0.000E+00  
        VJS        7.149E-01      7.149E-01      7.149E-01  
        CJS        0.000E+00      0.000E+00      0.000E+00  
      GAMMA        1.000E-11      1.000E-11      1.000E-11  
        RCO        0.000E+00      0.000E+00      0.000E+00  
         VO        1.000E+01      1.000E+01      1.000E+01  


 **** RESISTORS

                 R_R2 <R_R2>    R_R5 <R_R5>    R_R3 <R_R3>  

          R        3.300E-01      1.100E+01      1.100E+04  


                 R_R4 <R_R4>    R_R1 <R_R1>                 

          R        3.600E+03      1.000E+03  



**** 05/21/25 22:57:48 **** PSpice 24.1.0 (23 January 2025) *** ID# 0 ********

 ** Profile: "SCHEMATIC1-STB"  [ C:\Users\user\Desktop\Tehnici CAD\MacucVlad_FINAL\Proiect CAD final\stabilizatordetensiune_2-pspicef


 ****     INITIAL TRANSIENT SOLUTION       TEMPERATURE =   47.000 DEG C


******************************************************************************



 NODE   VOLTAGE     NODE   VOLTAGE     NODE   VOLTAGE     NODE   VOLTAGE


(   IN)   27.0000  (  OUT)   19.2890  (N07920)   19.8680 (N07962)   20.5740     

(N08074)    5.6879 (N08086)    5.0672 (N08172)    5.0696 (N08252)    4.4514     

(X_U1A.x_lm358.6)    -.0016           (X_U1A.x_lm358.7)   21.6560               

(X_U1A.x_lm358.8)   21.6560           (X_U1A.x_lm358.9)    0.0000               

(X_U1A.x_lm358.a)   26.9780           (X_U1A.x_lm358.b)    -.0216               

(X_U1A.x_lm358.10)    5.6381          (X_U1A.x_lm358.11)     .0402              

(X_U1A.x_lm358.12)     .0426          (X_U1A.x_lm358.13)    5.6240              

(X_U1A.x_lm358.14)    5.6232          (X_U1A.x_lm358.53)   25.5000              

(X_U1A.x_lm358.54)     .8220          (X_U1A.x_lm358.90)   21.6280              

(X_U1A.x_lm358.91)   40.0000          (X_U1A.x_lm358.92)  -40.0000              

(X_U1A.x_lm358.99)   13.5000          




    VOLTAGE SOURCE CURRENTS
    NAME         CURRENT

    V_V1        -1.780E+00
    X_U1A.x_lm358.vb  -1.643E-08
    X_U1A.x_lm358.vc   4.940E-12
    X_U1A.x_lm358.ve   1.965E-11
    X_U1A.x_lm358.vlim   2.163E-02
    X_U1A.x_lm358.vlp  -1.839E-11
    X_U1A.x_lm358.vln  -6.165E-11

    TOTAL POWER DISSIPATION   4.81E+01  WATTS


**** 05/21/25 22:57:48 **** PSpice 24.1.0 (23 January 2025) *** ID# 0 ********

 ** Profile: "SCHEMATIC1-STB"  [ C:\Users\user\Desktop\Tehnici CAD\MacucVlad_FINAL\Proiect CAD final\stabilizatordetensiune_2-pspicef


 ****     TEMPERATURE-ADJUSTED VALUES      TEMPERATURE =   70.000 DEG C


******************************************************************************




 **** DIODE MODEL PARAMETERS

                   D1N4733    X_U1A.x_lm358.dy
                                             X_U1A.x_lm358.dx

         IS        3.928E-13      2.589E-13      2.589E-13  
         VJ        6.738E-01      9.596E-01      9.596E-01  
        CJO        1.927E-10      1.029E-11      0.000E+00  
         RS        1.078E+00      1.000E-03      1.000E+00  
        IKF        0.000E+00      0.000E+00      0.000E+00  
         BV        5.139E+00  


 **** BJT MODEL PARAMETERS

                   Q2N2222        Q2N3055    X_U1A.x_lm358.qx

         BF        3.128E+02      1.216E+02      1.667E+02  
        ISE        9.767E-13      1.450E-08      0.000E+00  
        VJE        6.738E-01      6.738E-01      6.738E-01  
        CJE        2.300E-11      5.916E-10      0.000E+00  
         RE        0.000E+00      0.000E+00      0.000E+00  
         RB        1.000E+01      1.000E-01      0.000E+00  
         BR        7.447E+00      3.605E+00      1.000E+00  
        ISC        0.000E+00      0.000E+00      0.000E+00  
        VJC        6.738E-01      6.738E-01      6.738E-01  
        CJC        7.603E-12      2.869E-10      0.000E+00  
         RC        1.000E+00      1.000E-01      0.000E+00  
        RBM        1.000E+01      1.000E-01      0.000E+00  
         IS        4.640E-12      3.153E-10      2.589E-13  
        ISS        0.000E+00      0.000E+00      0.000E+00  
        VJS        6.738E-01      6.738E-01      6.738E-01  
        CJS        0.000E+00      0.000E+00      0.000E+00  
      GAMMA        1.000E-11      1.000E-11      1.000E-11  
        RCO        0.000E+00      0.000E+00      0.000E+00  
         VO        1.000E+01      1.000E+01      1.000E+01  


 **** RESISTORS

                 R_R2 <R_R2>    R_R5 <R_R5>    R_R3 <R_R3>  

          R        3.300E-01      1.100E+01      1.100E+04  


                 R_R4 <R_R4>    R_R1 <R_R1>                 

          R        3.600E+03      1.000E+03  



**** 05/21/25 22:57:48 **** PSpice 24.1.0 (23 January 2025) *** ID# 0 ********

 ** Profile: "SCHEMATIC1-STB"  [ C:\Users\user\Desktop\Tehnici CAD\MacucVlad_FINAL\Proiect CAD final\stabilizatordetensiune_2-pspicef


 ****     INITIAL TRANSIENT SOLUTION       TEMPERATURE =   70.000 DEG C


******************************************************************************



 NODE   VOLTAGE     NODE   VOLTAGE     NODE   VOLTAGE     NODE   VOLTAGE


(   IN)   27.0000  (  OUT)   19.3480  (N07920)   19.9280 (N07962)   20.5990     

(N08074)    5.7052 (N08086)    5.0825 (N08172)    5.0851 (N08252)    4.4649     

(X_U1A.x_lm358.6)    -.0016           (X_U1A.x_lm358.7)   21.6410               

(X_U1A.x_lm358.8)   21.6410           (X_U1A.x_lm358.9)    0.0000               

(X_U1A.x_lm358.a)   26.9790           (X_U1A.x_lm358.b)    -.0208               

(X_U1A.x_lm358.10)    5.6075          (X_U1A.x_lm358.11)     .0402              

(X_U1A.x_lm358.12)     .0426          (X_U1A.x_lm358.13)    5.5934              

(X_U1A.x_lm358.14)    5.5926          (X_U1A.x_lm358.53)   25.5000              

(X_U1A.x_lm358.54)     .8220          (X_U1A.x_lm358.90)   20.8340              

(X_U1A.x_lm358.91)   40.0000          (X_U1A.x_lm358.92)  -40.0000              

(X_U1A.x_lm358.99)   13.5000          




    VOLTAGE SOURCE CURRENTS
    NAME         CURRENT

    V_V1        -1.785E+00
    X_U1A.x_lm358.vb  -1.637E-08
    X_U1A.x_lm358.vc   5.160E-12
    X_U1A.x_lm358.ve   1.992E-11
    X_U1A.x_lm358.vlim   2.083E-02
    X_U1A.x_lm358.vlp  -1.943E-11
    X_U1A.x_lm358.vln  -6.109E-11

    TOTAL POWER DISSIPATION   4.82E+01  WATTS



          JOB CONCLUDED

**** 05/21/25 22:57:48 **** PSpice 24.1.0 (23 January 2025) *** ID# 0 ********

 ** Profile: "SCHEMATIC1-STB"  [ C:\Users\user\Desktop\Tehnici CAD\MacucVlad_FINAL\Proiect CAD final\stabilizatordetensiune_2-pspicef


 ****     JOB STATISTICS SUMMARY


******************************************************************************



  Total job time (using Solver 1)   =         .20
