
**** 05/18/25 17:33:49 **** PSpice 24.1.0 (23 January 2025) *** ID# 0 ********

 ** Profile: "SCHEMATIC1-STB"  [ C:\Users\user\Desktop\Proiect CAD final\stabilizatordetensiune_2-pspicefiles\schematic1\stb.sim ] 


 ****     CIRCUIT DESCRIPTION


******************************************************************************




** Creating circuit file "STB.cir" 
** WARNING: THIS AUTOMATICALLY GENERATED FILE MAY BE OVERWRITTEN BY SUBSEQUENT SIMULATIONS

*Libraries: 
* Profile Libraries :
* Local Libraries :
* From [PSPICE NETLIST] section of C:\Users\user\AppData\Roaming\SPB_Data\cdssetup\OrCAD_PSpice\24.1.0\PSpice.ini file:
.lib "nom.lib" 

*Analysis directives: 
.TRAN  0 6m 0 
.STEP LIN PARAM set 0 1 0.1 
.OPTIONS ADVCONV
.PROBE64 V(alias(*)) I(alias(*)) W(alias(*)) D(alias(*)) NOISE(alias(*)) 
.INC "..\SCHEMATIC1.net" 



**** INCLUDING SCHEMATIC1.net ****
* source STABILIZATORDETENSIUNE_2
Q_Q1         N07962 N07920 OUT Q2N2222
X_U1A         N08086 N08172 IN 0 N07962 LM358
R_R2         N07920 OUT R_R2 0.33 TC=0,0 
.model        R_R2 RES R=1 DEV=5% TC1=0 TC2=0
R_R5         0 OUT R_R5 11 TC=0,0 
.model        R_R5 RES R=1 DEV=5% TC1=0 TC2=0
Q_Q2         IN N07962 N07920 Q2N3055
X_P         N08074 N08172 N08252 POT PARAMS: SET={set} VALUE=1k
R_R3         N08074 OUT R_R3 11k TC=0,0 
.model        R_R3 RES R=1 DEV=5% TC1=0 TC2=0
D_D1         0 N08086 D1N4733 
R_R4         0 N08252 R_R4 3.6k TC=0,0 
.model        R_R4 RES R=1 DEV=5% TC1=0 TC2=0
R_R1         N08086 IN R_R1 1k TC=0,0 
.model        R_R1 RES R=1 DEV=5% TC1=0 TC2=0
V_V1         IN 0 27V
.PARAM  set=0.5

**** RESUMING STB.cir ****
.END

**** 05/18/25 17:33:49 **** PSpice 24.1.0 (23 January 2025) *** ID# 0 ********

 ** Profile: "SCHEMATIC1-STB"  [ C:\Users\user\Desktop\Proiect CAD final\stabilizatordetensiune_2-pspicefiles\schematic1\stb.sim ] 


 ****     Diode MODEL PARAMETERS


******************************************************************************




               D1N4733         X_U1A.x_lm358.dx 
          IS    1.214000E-15  800.000000E-18 
         ISR    2.601000E-09                 
          BV    5.1                          
         IBV     .70507                      
         NBV     .74348                      
        IBVL    4.827400E-03                 
        NBVL    6.7393                       
          RS    1.078           1            
         CJO  185.000000E-12                 
          VJ     .75                         
           M     .3509                       
        TBV1  176.471000E-06                 


               X_U1A.x_lm358.dy 
          IS  800.000000E-18 
          RS    1.000000E-03 
         CJO   10.000000E-12 


**** 05/18/25 17:33:49 **** PSpice 24.1.0 (23 January 2025) *** ID# 0 ********

 ** Profile: "SCHEMATIC1-STB"  [ C:\Users\user\Desktop\Proiect CAD final\stabilizatordetensiune_2-pspicefiles\schematic1\stb.sim ] 


 ****     BJT MODEL PARAMETERS


******************************************************************************




               Q2N2222         Q2N3055         
               NPN             NPN             
       LEVEL    1               1            
          IS   14.340000E-15  974.400000E-15 
          BF  255.9            99.49         
          NF    1               1            
         VAF   74.03           50            
         IKF     .2847          4.029        
         ISE   14.340000E-15  902.500000E-12 
          NE    1.307           1.941        
          BR    6.092           2.949        
          NR    1               1            
         ISS    0               0            
          RB   10                .1          
          RE    0               0            
          RC    1                .1          
         CJE   22.010000E-12  569.100000E-12 
         VJE     .75             .75         
         MJE     .377            .3333       
         CJC    7.306000E-12  276.000000E-12 
         VJC     .75             .75         
         MJC     .3416           .3333       
        XCJC    1               1            
         CJS    0               0            
         VJS     .75             .75         
          TF  411.100000E-12   39.110000E-09 
         XTF    3               2            
         VTF    1.7            10            
         ITF     .6            20            
          TR   46.910000E-09  971.700000E-09 
         XTB    1.5             1.5          
          KF    0               0            
          AF    1               1            
          CN    2.42            2.42         
           D     .87             .87         


               X_U1A.x_lm358.qx 
               PNP             
       LEVEL    1            
          IS  800.000000E-18 
          BF  166.7          
          NF    1            
          BR    1            
          NR    1            
         ISS    0            
          RE    0            
          RC    0            
         CJE    0            
         VJE     .75         
         CJC    0            
         VJC     .75         
         MJC     .33         
        XCJC    1            
         CJS    0            
         VJS     .75         
          KF    0            
          AF    1            
          CN    2.2          
           D     .52         


**** 05/18/25 17:33:49 **** PSpice 24.1.0 (23 January 2025) *** ID# 0 ********

 ** Profile: "SCHEMATIC1-STB"  [ C:\Users\user\Desktop\Proiect CAD final\stabilizatordetensiune_2-pspicefiles\schematic1\stb.sim ] 


 ****     Resistor MODEL PARAMETERS


******************************************************************************




               R_R2            R_R5            R_R3            R_R4            
           R    1               1               1               1            


               R_R1            
           R    1            


**** 05/18/25 17:33:49 **** PSpice 24.1.0 (23 January 2025) *** ID# 0 ********

 ** Profile: "SCHEMATIC1-STB"  [ C:\Users\user\Desktop\Proiect CAD final\stabilizatordetensiune_2-pspicefiles\schematic1\stb.sim ] 


 ****     Current Controlled Switch MODEL PARAMETERS


******************************************************************************




               X_U1A.x_lm358.sw2 
         RON    1            
        ROFF   10.000000E+06 
         ION    0            
        IOFF   -1.000000E-06 


               X_U1A.x_lm358.sw1 
         RON    1            
        ROFF   10.000000E+06 
         ION   -1.000000E-06 
        IOFF    0            


               X_U1A.x_lm358.sw3 
         RON    1            
        ROFF   10.000000E+06 
         ION   -1.000000E-06 
        IOFF    0            


               X_U1A.x_lm358.sw4 
         RON    1            
        ROFF   10.000000E+06 
         ION    0            
        IOFF   -1.000000E-06 


**** 05/18/25 17:33:49 **** PSpice 24.1.0 (23 January 2025) *** ID# 0 ********

 ** Profile: "SCHEMATIC1-STB"  [ C:\Users\user\Desktop\Proiect CAD final\stabilizatordetensiune_2-pspicefiles\schematic1\stb.sim ] 


 ****     INITIAL TRANSIENT SOLUTION       TEMPERATURE =   27.000 DEG C

 ****     CURRENT STEP                     PARAM SET =    0     


******************************************************************************



 NODE   VOLTAGE     NODE   VOLTAGE     NODE   VOLTAGE     NODE   VOLTAGE


(   IN)   27.0000  (  OUT)   21.9100  (N07920)   22.5670 (N07962)   23.3100     

(N08074)    6.4606 (N08086)    5.0539 (N08172)    5.0562 (N08252)    5.0562     

(X_U1A.x_lm358.6)    -.0023           (X_U1A.x_lm358.7)   24.8450               

(X_U1A.x_lm358.8)   24.8450           (X_U1A.x_lm358.9)    0.0000               

(X_U1A.x_lm358.a)   26.9690           (X_U1A.x_lm358.b)    -.0307               

(X_U1A.x_lm358.10)    5.6643          (X_U1A.x_lm358.11)     .0402              

(X_U1A.x_lm358.12)     .0425          (X_U1A.x_lm358.13)    5.6503              

(X_U1A.x_lm358.14)    5.6495          (X_U1A.x_lm358.53)   25.5000              

(X_U1A.x_lm358.54)     .8220          (X_U1A.x_lm358.90)   30.6960              

(X_U1A.x_lm358.91)   40.0000          (X_U1A.x_lm358.92)  -40.0000              

(X_U1A.x_lm358.99)   13.5000          




    VOLTAGE SOURCE CURRENTS
    NAME         CURRENT

    V_V1        -2.018E+00
    X_U1A.x_lm358.vb  -2.289E-08
    X_U1A.x_lm358.vc   2.190E-12
    X_U1A.x_lm358.ve   2.238E-11
    X_U1A.x_lm358.vlim   3.070E-02
    X_U1A.x_lm358.vlp  -9.305E-12
    X_U1A.x_lm358.vln  -7.070E-11

    TOTAL POWER DISSIPATION   5.45E+01  WATTS


**** 05/18/25 17:33:49 **** PSpice 24.1.0 (23 January 2025) *** ID# 0 ********

 ** Profile: "SCHEMATIC1-STB"  [ C:\Users\user\Desktop\Proiect CAD final\stabilizatordetensiune_2-pspicefiles\schematic1\stb.sim ] 


 ****     INITIAL TRANSIENT SOLUTION       TEMPERATURE =   27.000 DEG C

 ****     CURRENT STEP                     PARAM SET =     .1   


******************************************************************************



 NODE   VOLTAGE     NODE   VOLTAGE     NODE   VOLTAGE     NODE   VOLTAGE


(   IN)   27.0000  (  OUT)   21.3170  (N07920)   21.9570 (N07962)   22.6990     

(N08074)    6.2860 (N08086)    5.0539 (N08172)    5.0562 (N08252)    4.9195     

(X_U1A.x_lm358.6)    -.0021           (X_U1A.x_lm358.7)   24.1280               

(X_U1A.x_lm358.8)   24.1280           (X_U1A.x_lm358.9)    0.0000               

(X_U1A.x_lm358.a)   26.9710           (X_U1A.x_lm358.b)    -.0286               

(X_U1A.x_lm358.10)    5.6644          (X_U1A.x_lm358.11)     .0402              

(X_U1A.x_lm358.12)     .0425          (X_U1A.x_lm358.13)    5.6503              

(X_U1A.x_lm358.14)    5.6495          (X_U1A.x_lm358.53)   25.5000              

(X_U1A.x_lm358.54)     .8220          (X_U1A.x_lm358.90)   28.5670              

(X_U1A.x_lm358.91)   40.0000          (X_U1A.x_lm358.92)  -40.0000              

(X_U1A.x_lm358.99)   13.5000          




    VOLTAGE SOURCE CURRENTS
    NAME         CURRENT

    V_V1        -1.964E+00
    X_U1A.x_lm358.vb  -2.143E-08
    X_U1A.x_lm358.vc   2.802E-12
    X_U1A.x_lm358.ve   2.177E-11
    X_U1A.x_lm358.vlim   2.857E-02
    X_U1A.x_lm358.vlp  -1.143E-11
    X_U1A.x_lm358.vln  -6.857E-11

    TOTAL POWER DISSIPATION   5.30E+01  WATTS


**** 05/18/25 17:33:49 **** PSpice 24.1.0 (23 January 2025) *** ID# 0 ********

 ** Profile: "SCHEMATIC1-STB"  [ C:\Users\user\Desktop\Proiect CAD final\stabilizatordetensiune_2-pspicefiles\schematic1\stb.sim ] 


 ****     INITIAL TRANSIENT SOLUTION       TEMPERATURE =   27.000 DEG C

 ****     CURRENT STEP                     PARAM SET =     .2   


******************************************************************************



 NODE   VOLTAGE     NODE   VOLTAGE     NODE   VOLTAGE     NODE   VOLTAGE


(   IN)   27.0000  (  OUT)   20.7560  (N07920)   21.3790 (N07962)   22.1200     

(N08074)    6.1206 (N08086)    5.0539 (N08172)    5.0562 (N08252)    4.7901     

(X_U1A.x_lm358.6)    -.0020           (X_U1A.x_lm358.7)   23.4670               

(X_U1A.x_lm358.8)   23.4670           (X_U1A.x_lm358.9)    0.0000               

(X_U1A.x_lm358.a)   26.9730           (X_U1A.x_lm358.b)    -.0269               

(X_U1A.x_lm358.10)    5.6644          (X_U1A.x_lm358.11)     .0402              

(X_U1A.x_lm358.12)     .0425          (X_U1A.x_lm358.13)    5.6503              

(X_U1A.x_lm358.14)    5.6495          (X_U1A.x_lm358.53)   25.5000              

(X_U1A.x_lm358.54)     .8220          (X_U1A.x_lm358.90)   26.9370              

(X_U1A.x_lm358.91)   40.0000          (X_U1A.x_lm358.92)  -40.0000              

(X_U1A.x_lm358.99)   13.5000          




    VOLTAGE SOURCE CURRENTS
    NAME         CURRENT

    V_V1        -1.913E+00
    X_U1A.x_lm358.vb  -2.011E-08
    X_U1A.x_lm358.vc   3.381E-12
    X_U1A.x_lm358.ve   2.119E-11
    X_U1A.x_lm358.vlim   2.694E-02
    X_U1A.x_lm358.vlp  -1.306E-11
    X_U1A.x_lm358.vln  -6.694E-11

    TOTAL POWER DISSIPATION   5.17E+01  WATTS


**** 05/18/25 17:33:49 **** PSpice 24.1.0 (23 January 2025) *** ID# 0 ********

 ** Profile: "SCHEMATIC1-STB"  [ C:\Users\user\Desktop\Proiect CAD final\stabilizatordetensiune_2-pspicefiles\schematic1\stb.sim ] 


 ****     INITIAL TRANSIENT SOLUTION       TEMPERATURE =   27.000 DEG C

 ****     CURRENT STEP                     PARAM SET =     .3   


******************************************************************************



 NODE   VOLTAGE     NODE   VOLTAGE     NODE   VOLTAGE     NODE   VOLTAGE


(   IN)   27.0000  (  OUT)   20.2240  (N07920)   20.8310 (N07962)   21.5710     

(N08074)    5.9637 (N08086)    5.0539 (N08172)    5.0562 (N08252)    4.6673     

(X_U1A.x_lm358.6)    -.0019           (X_U1A.x_lm358.7)   22.8510               

(X_U1A.x_lm358.8)   22.8510           (X_U1A.x_lm358.9)    0.0000               

(X_U1A.x_lm358.a)   26.9740           (X_U1A.x_lm358.b)    -.0256               

(X_U1A.x_lm358.10)    5.6644          (X_U1A.x_lm358.11)     .0402              

(X_U1A.x_lm358.12)     .0425          (X_U1A.x_lm358.13)    5.6503              

(X_U1A.x_lm358.14)    5.6495          (X_U1A.x_lm358.53)   25.5000              

(X_U1A.x_lm358.54)     .8220          (X_U1A.x_lm358.90)   25.5970              

(X_U1A.x_lm358.91)   40.0000          (X_U1A.x_lm358.92)  -40.0000              

(X_U1A.x_lm358.99)   13.5000          




    VOLTAGE SOURCE CURRENTS
    NAME         CURRENT

    V_V1        -1.865E+00
    X_U1A.x_lm358.vb  -1.888E-08
    X_U1A.x_lm358.vc   3.930E-12
    X_U1A.x_lm358.ve   2.064E-11
    X_U1A.x_lm358.vlim   2.560E-02
    X_U1A.x_lm358.vlp  -1.440E-11
    X_U1A.x_lm358.vln  -6.560E-11

    TOTAL POWER DISSIPATION   5.04E+01  WATTS


**** 05/18/25 17:33:49 **** PSpice 24.1.0 (23 January 2025) *** ID# 0 ********

 ** Profile: "SCHEMATIC1-STB"  [ C:\Users\user\Desktop\Proiect CAD final\stabilizatordetensiune_2-pspicefiles\schematic1\stb.sim ] 


 ****     INITIAL TRANSIENT SOLUTION       TEMPERATURE =   27.000 DEG C

 ****     CURRENT STEP                     PARAM SET =     .4   


******************************************************************************



 NODE   VOLTAGE     NODE   VOLTAGE     NODE   VOLTAGE     NODE   VOLTAGE


(   IN)   27.0000  (  OUT)   19.7190  (N07920)   20.3110 (N07962)   21.0490     

(N08074)    5.8146 (N08086)    5.0539 (N08172)    5.0562 (N08252)    4.5506     

(X_U1A.x_lm358.6)    -.0018           (X_U1A.x_lm358.7)   22.2710               

(X_U1A.x_lm358.8)   22.2710           (X_U1A.x_lm358.9)    0.0000               

(X_U1A.x_lm358.a)   26.9760           (X_U1A.x_lm358.b)    -.0244               

(X_U1A.x_lm358.10)    5.6644          (X_U1A.x_lm358.11)     .0402              

(X_U1A.x_lm358.12)     .0425          (X_U1A.x_lm358.13)    5.6503              

(X_U1A.x_lm358.14)    5.6495          (X_U1A.x_lm358.53)   25.5000              

(X_U1A.x_lm358.54)     .8220          (X_U1A.x_lm358.90)   24.4400              

(X_U1A.x_lm358.91)   40.0000          (X_U1A.x_lm358.92)  -40.0000              

(X_U1A.x_lm358.99)   13.5000          




    VOLTAGE SOURCE CURRENTS
    NAME         CURRENT

    V_V1        -1.819E+00
    X_U1A.x_lm358.vb  -1.773E-08
    X_U1A.x_lm358.vc   4.452E-12
    X_U1A.x_lm358.ve   2.012E-11
    X_U1A.x_lm358.vlim   2.444E-02
    X_U1A.x_lm358.vlp  -1.556E-11
    X_U1A.x_lm358.vln  -6.444E-11

    TOTAL POWER DISSIPATION   4.91E+01  WATTS


**** 05/18/25 17:33:49 **** PSpice 24.1.0 (23 January 2025) *** ID# 0 ********

 ** Profile: "SCHEMATIC1-STB"  [ C:\Users\user\Desktop\Proiect CAD final\stabilizatordetensiune_2-pspicefiles\schematic1\stb.sim ] 


 ****     INITIAL TRANSIENT SOLUTION       TEMPERATURE =   27.000 DEG C

 ****     CURRENT STEP                     PARAM SET =     .5   


******************************************************************************



 NODE   VOLTAGE     NODE   VOLTAGE     NODE   VOLTAGE     NODE   VOLTAGE


(   IN)   27.0000  (  OUT)   19.2380  (N07920)   19.8150 (N07962)   20.5520     

(N08074)    5.6728 (N08086)    5.0539 (N08172)    5.0562 (N08252)    4.4396     

(X_U1A.x_lm358.6)    -.0017           (X_U1A.x_lm358.7)   21.7230               

(X_U1A.x_lm358.8)   21.7230           (X_U1A.x_lm358.9)    0.0000               

(X_U1A.x_lm358.a)   26.9770           (X_U1A.x_lm358.b)    -.0234               

(X_U1A.x_lm358.10)    5.6644          (X_U1A.x_lm358.11)     .0402              

(X_U1A.x_lm358.12)     .0425          (X_U1A.x_lm358.13)    5.6503              

(X_U1A.x_lm358.14)    5.6495          (X_U1A.x_lm358.53)   25.5000              

(X_U1A.x_lm358.54)     .8220          (X_U1A.x_lm358.90)   23.4120              

(X_U1A.x_lm358.91)   40.0000          (X_U1A.x_lm358.92)  -40.0000              

(X_U1A.x_lm358.99)   13.5000          




    VOLTAGE SOURCE CURRENTS
    NAME         CURRENT

    V_V1        -1.775E+00
    X_U1A.x_lm358.vb  -1.665E-08
    X_U1A.x_lm358.vc   4.949E-12
    X_U1A.x_lm358.ve   1.962E-11
    X_U1A.x_lm358.vlim   2.341E-02
    X_U1A.x_lm358.vlp  -1.659E-11
    X_U1A.x_lm358.vln  -6.342E-11

    TOTAL POWER DISSIPATION   4.79E+01  WATTS


**** 05/18/25 17:33:49 **** PSpice 24.1.0 (23 January 2025) *** ID# 0 ********

 ** Profile: "SCHEMATIC1-STB"  [ C:\Users\user\Desktop\Proiect CAD final\stabilizatordetensiune_2-pspicefiles\schematic1\stb.sim ] 


 ****     INITIAL TRANSIENT SOLUTION       TEMPERATURE =   27.000 DEG C

 ****     CURRENT STEP                     PARAM SET =     .6   


******************************************************************************



 NODE   VOLTAGE     NODE   VOLTAGE     NODE   VOLTAGE     NODE   VOLTAGE


(   IN)   27.0000  (  OUT)   18.7800  (N07920)   19.3430 (N07962)   20.0790     

(N08074)    5.5377 (N08086)    5.0539 (N08172)    5.0562 (N08252)    4.3339     

(X_U1A.x_lm358.6)    -.0016           (X_U1A.x_lm358.7)   21.2030               

(X_U1A.x_lm358.8)   21.2030           (X_U1A.x_lm358.9)    0.0000               

(X_U1A.x_lm358.a)   26.9780           (X_U1A.x_lm358.b)    -.0225               

(X_U1A.x_lm358.10)    5.6644          (X_U1A.x_lm358.11)     .0402              

(X_U1A.x_lm358.12)     .0425          (X_U1A.x_lm358.13)    5.6503              

(X_U1A.x_lm358.14)    5.6495          (X_U1A.x_lm358.53)   25.5000              

(X_U1A.x_lm358.54)     .8220          (X_U1A.x_lm358.90)   22.4820              

(X_U1A.x_lm358.91)   40.0000          (X_U1A.x_lm358.92)  -40.0000              

(X_U1A.x_lm358.99)   13.5000          




    VOLTAGE SOURCE CURRENTS
    NAME         CURRENT

    V_V1        -1.733E+00
    X_U1A.x_lm358.vb  -1.562E-08
    X_U1A.x_lm358.vc   5.421E-12
    X_U1A.x_lm358.ve   1.915E-11
    X_U1A.x_lm358.vlim   2.248E-02
    X_U1A.x_lm358.vlp  -1.752E-11
    X_U1A.x_lm358.vln  -6.249E-11

    TOTAL POWER DISSIPATION   4.68E+01  WATTS


**** 05/18/25 17:33:49 **** PSpice 24.1.0 (23 January 2025) *** ID# 0 ********

 ** Profile: "SCHEMATIC1-STB"  [ C:\Users\user\Desktop\Proiect CAD final\stabilizatordetensiune_2-pspicefiles\schematic1\stb.sim ] 


 ****     INITIAL TRANSIENT SOLUTION       TEMPERATURE =   27.000 DEG C

 ****     CURRENT STEP                     PARAM SET =     .7   


******************************************************************************



 NODE   VOLTAGE     NODE   VOLTAGE     NODE   VOLTAGE     NODE   VOLTAGE


(   IN)   27.0000  (  OUT)   18.3430  (N07920)   18.8940 (N07962)   19.6280     

(N08074)    5.4090 (N08086)    5.0539 (N08172)    5.0562 (N08252)    4.2331     

(X_U1A.x_lm358.6)    -.0015           (X_U1A.x_lm358.7)   20.7100               

(X_U1A.x_lm358.8)   20.7100           (X_U1A.x_lm358.9)    0.0000               

(X_U1A.x_lm358.a)   26.9780           (X_U1A.x_lm358.b)    -.0216               

(X_U1A.x_lm358.10)    5.6644          (X_U1A.x_lm358.11)     .0401              

(X_U1A.x_lm358.12)     .0425          (X_U1A.x_lm358.13)    5.6503              

(X_U1A.x_lm358.14)    5.6495          (X_U1A.x_lm358.53)   25.5000              

(X_U1A.x_lm358.54)     .8220          (X_U1A.x_lm358.90)   21.6300              

(X_U1A.x_lm358.91)   40.0000          (X_U1A.x_lm358.92)  -40.0000              

(X_U1A.x_lm358.99)   13.5000          




    VOLTAGE SOURCE CURRENTS
    NAME         CURRENT

    V_V1        -1.694E+00
    X_U1A.x_lm358.vb  -1.465E-08
    X_U1A.x_lm358.vc   5.872E-12
    X_U1A.x_lm358.ve   1.869E-11
    X_U1A.x_lm358.vlim   2.163E-02
    X_U1A.x_lm358.vlp  -1.837E-11
    X_U1A.x_lm358.vln  -6.163E-11

    TOTAL POWER DISSIPATION   4.57E+01  WATTS


**** 05/18/25 17:33:49 **** PSpice 24.1.0 (23 January 2025) *** ID# 0 ********

 ** Profile: "SCHEMATIC1-STB"  [ C:\Users\user\Desktop\Proiect CAD final\stabilizatordetensiune_2-pspicefiles\schematic1\stb.sim ] 


 ****     INITIAL TRANSIENT SOLUTION       TEMPERATURE =   27.000 DEG C

 ****     CURRENT STEP                     PARAM SET =     .8   


******************************************************************************



 NODE   VOLTAGE     NODE   VOLTAGE     NODE   VOLTAGE     NODE   VOLTAGE


(   IN)   27.0000  (  OUT)   17.9260  (N07920)   18.4640 (N07962)   19.1980     

(N08074)    5.2860 (N08086)    5.0539 (N08172)    5.0562 (N08252)    4.1369     

(X_U1A.x_lm358.6)    -.0014           (X_U1A.x_lm358.7)   20.2400               

(X_U1A.x_lm358.8)   20.2400           (X_U1A.x_lm358.9)    0.0000               

(X_U1A.x_lm358.a)   26.9790           (X_U1A.x_lm358.b)    -.0208               

(X_U1A.x_lm358.10)    5.6644          (X_U1A.x_lm358.11)     .0401              

(X_U1A.x_lm358.12)     .0426          (X_U1A.x_lm358.13)    5.6503              

(X_U1A.x_lm358.14)    5.6495          (X_U1A.x_lm358.53)   25.5000              

(X_U1A.x_lm358.54)     .8220          (X_U1A.x_lm358.90)   20.8440              

(X_U1A.x_lm358.91)   40.0000          (X_U1A.x_lm358.92)  -40.0000              

(X_U1A.x_lm358.99)   13.5000          




    VOLTAGE SOURCE CURRENTS
    NAME         CURRENT

    V_V1        -1.656E+00
    X_U1A.x_lm358.vb  -1.373E-08
    X_U1A.x_lm358.vc   6.303E-12
    X_U1A.x_lm358.ve   1.826E-11
    X_U1A.x_lm358.vlim   2.084E-02
    X_U1A.x_lm358.vlp  -1.916E-11
    X_U1A.x_lm358.vln  -6.085E-11

    TOTAL POWER DISSIPATION   4.47E+01  WATTS


**** 05/18/25 17:33:49 **** PSpice 24.1.0 (23 January 2025) *** ID# 0 ********

 ** Profile: "SCHEMATIC1-STB"  [ C:\Users\user\Desktop\Proiect CAD final\stabilizatordetensiune_2-pspicefiles\schematic1\stb.sim ] 


 ****     INITIAL TRANSIENT SOLUTION       TEMPERATURE =   27.000 DEG C

 ****     CURRENT STEP                     PARAM SET =     .9   


******************************************************************************



 NODE   VOLTAGE     NODE   VOLTAGE     NODE   VOLTAGE     NODE   VOLTAGE


(   IN)   27.0000  (  OUT)   17.5280  (N07920)   18.0540 (N07962)   18.7870     

(N08074)    5.1686 (N08086)    5.0539 (N08172)    5.0562 (N08252)    4.0450     

(X_U1A.x_lm358.6)    -.0013           (X_U1A.x_lm358.7)   19.7920               

(X_U1A.x_lm358.8)   19.7920           (X_U1A.x_lm358.9)    0.0000               

(X_U1A.x_lm358.a)   26.9800           (X_U1A.x_lm358.b)    -.0201               

(X_U1A.x_lm358.10)    5.6644          (X_U1A.x_lm358.11)     .0401              

(X_U1A.x_lm358.12)     .0426          (X_U1A.x_lm358.13)    5.6503              

(X_U1A.x_lm358.14)    5.6495          (X_U1A.x_lm358.53)   25.5000              

(X_U1A.x_lm358.54)     .8220          (X_U1A.x_lm358.90)   20.1160              

(X_U1A.x_lm358.91)   40.0000          (X_U1A.x_lm358.92)  -40.0000              

(X_U1A.x_lm358.99)   13.5000          




    VOLTAGE SOURCE CURRENTS
    NAME         CURRENT

    V_V1        -1.619E+00
    X_U1A.x_lm358.vb  -1.285E-08
    X_U1A.x_lm358.vc   6.714E-12
    X_U1A.x_lm358.ve   1.785E-11
    X_U1A.x_lm358.vlim   2.012E-02
    X_U1A.x_lm358.vlp  -1.988E-11
    X_U1A.x_lm358.vln  -6.012E-11

    TOTAL POWER DISSIPATION   4.37E+01  WATTS


**** 05/18/25 17:33:49 **** PSpice 24.1.0 (23 January 2025) *** ID# 0 ********

 ** Profile: "SCHEMATIC1-STB"  [ C:\Users\user\Desktop\Proiect CAD final\stabilizatordetensiune_2-pspicefiles\schematic1\stb.sim ] 


 ****     INITIAL TRANSIENT SOLUTION       TEMPERATURE =   27.000 DEG C

 ****     CURRENT STEP                     PARAM SET =    1     


******************************************************************************



 NODE   VOLTAGE     NODE   VOLTAGE     NODE   VOLTAGE     NODE   VOLTAGE


(   IN)   27.0000  (  OUT)   17.1470  (N07920)   17.6610 (N07962)   18.3930     

(N08074)    5.0562 (N08086)    5.0539 (N08172)    5.0562 (N08252)    3.9570     

(X_U1A.x_lm358.6)    -.0012           (X_U1A.x_lm358.7)   19.3650               

(X_U1A.x_lm358.8)   19.3650           (X_U1A.x_lm358.9)    0.0000               

(X_U1A.x_lm358.a)   26.9810           (X_U1A.x_lm358.b)    -.0194               

(X_U1A.x_lm358.10)    5.6644          (X_U1A.x_lm358.11)     .0401              

(X_U1A.x_lm358.12)     .0426          (X_U1A.x_lm358.13)    5.6503              

(X_U1A.x_lm358.14)    5.6495          (X_U1A.x_lm358.53)   25.5000              

(X_U1A.x_lm358.54)     .8220          (X_U1A.x_lm358.90)   19.4380              

(X_U1A.x_lm358.91)   40.0000          (X_U1A.x_lm358.92)  -40.0000              

(X_U1A.x_lm358.99)   13.5000          




    VOLTAGE SOURCE CURRENTS
    NAME         CURRENT

    V_V1        -1.585E+00
    X_U1A.x_lm358.vb  -1.201E-08
    X_U1A.x_lm358.vc   7.108E-12
    X_U1A.x_lm358.ve   1.746E-11
    X_U1A.x_lm358.vlim   1.944E-02
    X_U1A.x_lm358.vlp  -2.056E-11
    X_U1A.x_lm358.vln  -5.944E-11

    TOTAL POWER DISSIPATION   4.28E+01  WATTS



          JOB CONCLUDED

**** 05/18/25 17:33:49 **** PSpice 24.1.0 (23 January 2025) *** ID# 0 ********

 ** Profile: "SCHEMATIC1-STB"  [ C:\Users\user\Desktop\Proiect CAD final\stabilizatordetensiune_2-pspicefiles\schematic1\stb.sim ] 


 ****     JOB STATISTICS SUMMARY

 ****     CURRENT STEP                     PARAM SET =    1     


******************************************************************************



  Total job time (using Solver 1)   =         .27
